LAMMPS (17 Nov 2016)
# Input file for nanocutting of Cubic SiC with a diamond tool
# Chris Fung, June 2013 (last update: Mar 219)

# ------------------------ GPU SETTINGS ----------------------------

#package cuda gpu/node 1 0
#package omp 2 force/neigh

# ------------------------ INITIALIZATION ----------------------------
units 		metal
dimension	3
boundary	s	s	p
atom_style	atomic

variable a equal 4.3668		# lattice parameter (Å) of 3C-SiC
variable b equal 3.5716		# lattice parameter (Å) of diamond (C)
variable c equal $a/$b		# ratio of a:b
variable c equal 4.3668/$b
variable c equal 4.3668/3.5716

variable doc equal 5		# depth of cut (Å) = doc × a
variable wy equal 20		# thickness of workpiece material in y-direction

variable dx equal 70*$c		# xlo of diamond tool
variable dx equal 70*1.22264531302497
variable dy equal (20-5)*$c
variable dy equal (20-5)*1.22264531302497
variable dx1 equal 11+85.5851719117479
variable dy1 equal 11+18.3396796953745
variable r equal 4		# cutting edge raidus
variable rx equal 85.5851719117479+$r
variable rx equal 85.5851719117479+4
variable ry equal 18.3396796953745+$r
variable ry equal 18.3396796953745+4
variable bx1 equal 96.5851719117479-1
variable bx2 equal 95.5851719117479-1
variable by1 equal 29.3396796953745-1
variable by2 equal 28.3396796953745-1

variable z equal 18.0

lattice fcc $a
lattice fcc 4.3668
Lattice spacing in x,y,z = 4.3668 4.3668 4.3668
region		whole block 0 99 0 27 0 $z
region		whole block 0 99 0 27 0 18
create_box	3 whole
Created orthogonal box = (0 0 0) to (432.313 117.904 78.6024)

# ----------------------- ATOM DEFINITION ----------------------------

# create C atoms for diamond tool
lattice diamond $b orient x 1 0 0 orient y 0 1 0 origin 0 0 0.4
lattice diamond 3.5716 orient x 1 0 0 orient y 0 1 0 origin 0 0 0.4
Lattice spacing in x,y,z = 3.5716 3.5716 3.5716

# define the shape, dimension, and initial position of cutting tool
region cut_toolB block 85.5851719117479 96.5851719117479 18.3396796953745 29.3396796953745 INF INF
region cut_toolR cylinder z 89.5851719117479 22.3396796953745  4 INF INF
region trimbox1 block 85.5851719117479 89.5851719117479 18.3396796953745 22.3396796953745 INF INF side out
region cut_toolTr intersect 2 cut_toolB trimbox1
region cut_tool union 2 cut_toolTr cut_toolR

region trimbox2 prism 4.35 15.65 0 1 INF INF 6 0 0

#define boundaries of cutting tool
region ctTop block 85.5851719117479 96.5851719117479 28.3396796953745 29.3396796953745 INF INF
region ctxEnd block 95.5851719117479 96.5851719117479 18.3396796953745 29.3396796953745 INF INF
region ctTSbottom block 85.5851719117479 95.5851719117479 27.3396796953745 28.3396796953745 INF INF
region ctTSxEnd block 94.5851719117479 95.5851719117479 18.3396796953745 28.3396796953745 INF INF
region ctbound union 2 ctTop ctxEnd
region ctTSbound union 2 ctTSbottom ctTSxEnd

# create C atoms of diamond tool and make a nano-groove on the flank face
create_atoms 1 region cut_tool
Created 20768 atoms

delete_atoms region trimbox2
Deleted 0 atoms, new total = 20768

variable gy equal 0+3.2226178427343
variable gy1 equal 3.2226178427343+1.0
variable gz1 equal 1.0*18+1.5
region groove4 block  85.5851719117479 96.5851719117479 3.2226178427343 4.2226178427343 2.5 19.5
variable gy1 equal 4.2226178427343+1.0
variable gz0 equal 2.5+1.0
variable gz1 equal 19.5-1.0
region groove5 block  85.5851719117479 96.5851719117479 3.2226178427343 5.2226178427343 3.5 18.5
variable gy1 equal 5.2226178427343+1.0
variable gz0 equal 3.5+1.0
variable gz1 equal 18.5-1.0
region groove6 block 85.5851719117479 96.5851719117479 3.2226178427343 6.2226178427343 4.5 17.5
variable gy1 equal 6.2226178427343+1.0
variable gz0 equal 4.5+1.0
variable gz1 equal 17.5-1.0
region groove7 block 85.5851719117479 96.5851719117479 3.2226178427343 7.2226178427343 5.5 16.5
variable gy1 equal 7.2226178427343+1.0
variable gz0 equal 5.5+1.0
variable gz1 equal 16.5-1.0
region groove8 block 85.5851719117479 96.5851719117479 3.2226178427343 8.2226178427343 6.5 15.5
variable gy1 equal 8.2226178427343+1.0
variable gz0 equal 6.5+1.0
variable gz1 equal 15.5-1.0
region groove9 block 85.5851719117479 96.5851719117479 3.2226178427343 9.2226178427343 7.5 14.5
variable gy1 equal 9.2226178427343+1.0
variable gz0 equal 7.5+1.0
variable gz1 equal 14.5-1.0
region groove10 block 85.5851719117479 96.5851719117479 3.2226178427343 10.2226178427343 8.5 13.5
variable gy1 equal 10.2226178427343+1.0
variable gz0 equal 8.5+1.0
variable gz1 equal 13.5-1.0
region groove11 block 85.5851719117479 96.5851719117479 3.2226178427343 11.2226178427343 9.5 12.5
variable gy1 equal 11.2226178427343+1.0
variable gz0 equal 9.5+1.0
variable gz1 equal 12.5-1.0
region groove12 block 85.5851719117479 96.5851719117479 3.2226178427343 12.2226178427343 10.5 11.5

delete_atoms region groove4
Deleted 0 atoms, new total = 20768
delete_atoms region groove5
Deleted 0 atoms, new total = 20768
delete_atoms region groove6
Deleted 0 atoms, new total = 20768
delete_atoms region groove7
Deleted 0 atoms, new total = 20768
delete_atoms region groove8
Deleted 0 atoms, new total = 20768
delete_atoms region groove9
Deleted 0 atoms, new total = 20768
delete_atoms region groove10
Deleted 0 atoms, new total = 20768
delete_atoms region groove11
Deleted 0 atoms, new total = 20768
delete_atoms region groove12
Deleted 0 atoms, new total = 20768

group gpCTall region  cut_tool
20768 atoms in group gpCTall
group gpCTbd  region  ctbound
3696 atoms in group gpCTbd
group gpCTtsbd  region  ctTSbound
3344 atoms in group gpCTtsbd
group gpCTmob subtract gpCTall gpCTbd gpCTtsbd
13728 atoms in group gpCTmob
group gpCTeq subtract gpCTall gpCTbd
17072 atoms in group gpCTeq

print "diamond tool created"
diamond tool created
#------------------------------------------------------------

# define the lattice of cubic SiC (two atom types form two interpenetrating face-centered cubic lattices)

# define the shape and dimension of the workpiece
lattice fcc $a origin 0 0 0 orient x 1 0 0 orient y 0 1 0
lattice fcc 4.3668 origin 0 0 0 orient x 1 0 0 orient y 0 1 0
Lattice spacing in x,y,z = 4.3668 4.3668 4.3668

# define the boundaries for workpiece
region workpiece block 0 65 0 20 INF INF
region wpbottom block 0 65 0 1 INF INF
region wpxEnd block 0 1 0 20 INF INF
region wpTSbottom block 1 65 1 2 INF INF
region wpTSxEnd block 1 2 1 20 INF INF
region wpbound union 2 wpbottom wpxEnd
region wpTSbound union 2 wpTSbottom wpTSxEnd

# create Si atoms for SiC workpiece
create_atoms	2 region workpiece
Created 96678 atoms

# offset origin for 1/4 unit cell for C atoms
lattice fcc $a origin 0.25 0.25 0.25 orient x 1 0 0 orient y 0 1 0
lattice fcc 4.3668 origin 0.25 0.25 0.25 orient x 1 0 0 orient y 0 1 0
Lattice spacing in x,y,z = 4.3668 4.3668 4.3668
create_atoms	3 region workpiece
Created 93600 atoms

# groups atoms
group gpWPall region workpiece
190278 atoms in group gpWPall
group gpWPbd region wpbound
15174 atoms in group gpWPbd
group gpWPtsbd region wpTSbound
14814 atoms in group gpWPtsbd
group gpWPmob subtract gpWPall gpWPbd gpWPtsbd
163296 atoms in group gpWPmob

print "Workpiece created"
Workpiece created

#-------------------------------------------------

# define the mass of atoms
mass 1 12 #.0107 # C (g/mol)
mass 2 28 #.0855 # Si (g/mol)
mass 3 12 #.0107 # C (g/mol)

#group Si type 2
#group C type 1 3

lattice fcc $a origin 0 0 0
lattice fcc 4.3668 origin 0 0 0
Lattice spacing in x,y,z = 4.3668 4.3668 4.3668

# ------------------------ FORCE FIELDS ------------------------------

pair_style      atomistica BrennerScr

pair_coeff	* * C Si C

# ------------------------- SETTINGS ---------------------------------
######################################
# EQUILIBRATION

# set temperature at 300 K

group gpCTeq union gpCTmob gpCTtsbd
17072 atoms in group gpCTeq
group gpWPeq union gpWPmob gpWPtsbd
178110 atoms in group gpWPeq
group gpAlleq union gpCTeq gpWPeq
195182 atoms in group gpAlleq

compute myCTtemp gpCTeq temp
compute myWPtemp gpWPeq temp
velocity gpAlleq create 300 102456 dist uniform

fix 1 gpCTeq nvt temp 300.0 300.0 0.1 # aniso 1.0 1.0 0.5
fix_modify 1 temp myCTtemp
fix 2 gpWPeq nvt temp 300.0 300.0 0.1 # aniso 1.0 1.0 0.5
fix_modify 2 temp myWPtemp

reset_timestep	0
timestep 0.001 # set 1 femtosecond per step

fix 3 gpWPbd move linear 0 0 0
fix 4 gpCTbd move linear -0.75 0 0  units box

fix 10 all balance 100 0.9 shift xy 10 1.05 out tmp.balance
fix 13 all property/atom mol ghost yes

set group gpCTmob mol 1
  13728 settings made for mol
set group gpCTtsbd mol 2
  3344 settings made for mol
set group gpCTbd mol 3
  3696 settings made for mol

set group gpWPmob mol 4
  163296 settings made for mol
set group gpWPtsbd mol 5
  14814 settings made for mol
set group gpWPbd mol 6
  15174 settings made for mol

# Display thermo

thermo 	100
thermo_style custom step temp c_myCTtemp c_myWPtemp press etotal

#compute		eCSP all centro/atom fcc
#compute atomke all ke/atom
dump	 e0dumpCSP all custom 500 dump.cutsic_eq.*.lammpstrj id type mol element x y z vx vy vz # c_atomke
dump_modify e0dumpCSP element C Si C

# backup initial state and every 1000 steps
#write_restart cut_sic_eq.restart.0000.*.mpiio
#restart 1000 cut_sic_eq.restart.*.mpiio

# Run for at least 10 picosecond
print "start run equilibration"
start run equilibration

run 27000
  1 neighbor list requests
  update every 1 steps, delay 10 steps, check yes
Step Temp c_myCTtemp c_myWPtemp Press TotEng
0    277.44936    299.66969    300.03334   -9516.4047   -1332230.4
Averages over the last 136 of 271 rows, steps 13500 to 27000:
Temp c_myCTtemp c_myWPtemp Press TotEng
277.552 300.203 300.048 -1599.93 -1.32607e+06
Loop time of 13667.1 on 32 procs for 27000 steps with 211046 atoms

print "Complete equilibration process"
Complete equilibration process

unfix 1
unfix 2
unfix 3
unfix 4
uncompute myCTtemp
uncompute myWPtemp
undump e0dumpCSP

######################################
# DEFORMATION

# move the tool to closer

#displace_atoms gpCTall move -4.9 0 0

reset_timestep	0
timestep 0.0005

compute myCTmobtemp gpCTmob temp/partial 0 1 1
compute myWPmobtemp gpWPmob temp/partial 0 1 1
compute myCTTStemp gpCTtsbd temp
compute myWPTStemp gpWPtsbd temp/partial 0 1 1

# rescale the temperature of thermostatic boundaries to 300 K

fix 1 gpWPtsbd nvt temp 300.0 300.0 0.01 #iso 1.0 1.0 0.5
fix_modify 1 temp myWPTStemp
fix 2 gpCTtsbd nvt temp 300.0 300.0 0.01 #iso 1.0 1.0 0.5
fix_modify 2 temp myCTTStemp

fix 3 gpWPbd move linear 0 0 0
fix 4 gpCTbd move linear -$v 0 0 units box  # cutting speed = v * 100 (m s^-1 in the x-direction)
fix 4 gpCTbd move linear -3.0 0 0 units box

group mobile union gpCTmob gpWPmob
177024 atoms in group mobile

fix 5 mobile nve

compute ke all ke/atom
fix 12 all ave/atom 10 50 500 c_ke

thermo 	500
thermo_style custom step c_myCTmobtemp c_myCTTStemp c_myWPmobtemp c_myWPTStemp press etotal fmax fnorm

# Output strain and stress info to file
# for units metal, pressure is in [bars] = 100 [kPa] = 1/10000 [GPa]
# p2, p3, p4 are in GPa

## Use cfg for AtomEye
#dump 		1 all cfg 2000 dump.cutsic_*.cfg id type xs ys zs c_csym

# backup initial state and every 1000 steps
write_restart cut_sic.restart.0000
restart 1000 cut_sic.restart

# Display thermo
dump	 0dumpCSP all custom  500 dump.cutsic.*.lammpstrj id type mol x y z vx vy vz f_12
dump_modify 0dumpCSP element C Si C

#write_restart cut_sic.restart.0000
#restart 1000 cut_sic.restart

reset_timestep	0
variable Nstep equal ceil(400000/$v)
variable Nstep equal ceil(400000/3.0)
 run 133334
Step c_myCTmobtemp c_myCTTStemp c_myWPmobtemp c_myWPTStemp Press TotEng Fmax Fnorm
0    302.29775    301.58219    305.10059    242.58007   -4072.8706   -1326191.9    6.0725371    760.87342
Averages over the last 98 of 195 rows, steps 48500 to 97000:
c_myCTmobtemp c_myCTTStemp c_myWPmobtemp c_myWPTStemp Press TotEng Fmax Fnorm
371.948 310.222 1388.12 301.387 2034.88 -1.27124e+06 22.4953 1223.84
